#GMS MODFLOW Simulation
#18 February 2014
FREE
HDF5 1.0 -1 "Jones_Problem.h5" "Arrays/ibound1" 1 0 2700
-999.0
HDF5 1.0 -1 "Jones_Problem.h5" "Arrays/StartHead1" 1 0 2700
